MODEL 1
REMARK VINA RESULT:    -5.842      0.000      0.000
REMARK INTER + INTRA:          -9.888
REMARK INTER:                  -8.061
REMARK INTRA:                  -1.827
REMARK UNBOUND:                -1.827
REMARK SMILES Oc1ccc2c(c1)S[C@H](C1CCCC1)[C@H](c1ccc(OCCN3CCCCC3)cc1)O2
REMARK SMILES IDX 20 1 19 2 16 3 17 4 30 5 18 6 29 7 15 8 2 9 3 10 7 11 4 12
REMARK SMILES IDX 6 13 5 14 8 15 31 16 9 17 1 18 10 20 11 21 14 22 12 23 13 24
REMARK SMILES IDX 21 25 22 26 23 27 24 28 28 29 25 30 27 31 26 32
REMARK H PARENT 1 19
REMARK Flexibility Score: inf
ROOT
ATOM      1  O   UNL     1      -3.537   3.273   7.887  1.00  0.00    -0.492 OA
ENDROOT
BRANCH   1   2
ATOM      2  C   UNL     1      -4.167   3.197   6.633  1.00  0.00     0.119 A 
ATOM      3  C   UNL     1      -5.409   3.098   4.110  1.00  0.00    -0.006 A 
ATOM      4  C   UNL     1      -4.701   4.210   4.505  1.00  0.00     0.011 A 
ATOM      5  C   UNL     1      -5.493   2.038   4.978  1.00  0.00     0.011 A 
ATOM      6  C   UNL     1      -4.095   4.254   5.742  1.00  0.00     0.047 A 
ATOM      7  C   UNL     1      -4.876   2.084   6.233  1.00  0.00     0.047 A 
BRANCH   3   8
ATOM      8  C   UNL     1      -6.059   3.046   2.797  1.00  0.00     0.217 C 
ATOM      9  C   UNL     1      -9.817  -0.443   2.737  1.00  0.00     0.116 A 
ATOM     10  C   UNL     1     -10.374   0.783   2.961  1.00  0.00     0.050 A 
ATOM     11  C   UNL     1      -8.438  -0.543   2.544  1.00  0.00     0.065 A 
ATOM     12  C   UNL     1      -9.577   1.894   2.993  1.00  0.00     0.051 A 
ATOM     13  C   UNL     1      -7.642   0.540   2.572  1.00  0.00     0.053 A 
ATOM     14  C   UNL     1      -8.198   1.780   2.798  1.00  0.00     0.134 A 
ATOM     15  S   UNL     1      -5.898   0.417   2.328  1.00  0.00    -0.114 SA
ATOM     16  O   UNL     1      -7.445   2.916   2.839  1.00  0.00    -0.483 OA
ATOM     17  C   UNL     1      -5.428   2.117   1.806  1.00  0.00     0.100 C 
BRANCH   9  18
ATOM     18  O   UNL     1     -10.613  -1.563   2.704  1.00  0.00    -0.508 OA
ATOM     19  H   UNL     1     -10.391  -2.400   3.212  1.00  0.00     0.293 HD
ENDBRANCH   9  18
BRANCH  17  20
ATOM     20  C   UNL     1      -3.960   2.260   1.664  1.00  0.00     0.006 C 
ATOM     21  C   UNL     1      -3.537   1.374   0.482  1.00  0.00     0.005 C 
ATOM     22  C   UNL     1      -3.681   3.630   1.039  1.00  0.00     0.005 C 
ATOM     23  C   UNL     1      -4.258   2.018  -0.672  1.00  0.00     0.000 C 
ATOM     24  C   UNL     1      -4.311   3.472  -0.338  1.00  0.00     0.000 C 
ENDBRANCH  17  20
ENDBRANCH   3   8
ENDBRANCH   1   2
BRANCH   1  25
ATOM     25  C   UNL     1      -2.660   2.218   8.224  1.00  0.00     0.245 C 
BRANCH  25  26
ATOM     26  C   UNL     1      -1.260   2.457   7.760  1.00  0.00     0.126 C 
BRANCH  26  27
ATOM     27  N   UNL     1      -0.661   1.393   7.031  1.00  0.00    -0.300 NA
ATOM     28  C   UNL     1      -1.604   0.345   6.686  1.00  0.00     0.084 C 
ATOM     29  C   UNL     1       0.195   1.751   5.953  1.00  0.00     0.084 C 
ATOM     30  C   UNL     1      -1.702   0.106   5.204  1.00  0.00     0.016 C 
ATOM     31  C   UNL     1      -0.546   2.219   4.724  1.00  0.00     0.016 C 
ATOM     32  C   UNL     1      -1.836   1.453   4.525  1.00  0.00     0.003 C 
ENDBRANCH  26  27
ENDBRANCH  25  26
ENDBRANCH   1  25
TORSDOF 7
ENDMDL
MODEL 2
REMARK VINA RESULT:    -5.652      2.700      5.281
REMARK INTER + INTRA:          -9.626
REMARK INTER:                  -8.547
REMARK INTRA:                  -1.079
REMARK UNBOUND:                -1.827
REMARK SMILES Oc1ccc2c(c1)S[C@H](C1CCCC1)[C@H](c1ccc(OCCN3CCCCC3)cc1)O2
REMARK SMILES IDX 20 1 19 2 16 3 17 4 30 5 18 6 29 7 15 8 2 9 3 10 7 11 4 12
REMARK SMILES IDX 6 13 5 14 8 15 31 16 9 17 1 18 10 20 11 21 14 22 12 23 13 24
REMARK SMILES IDX 21 25 22 26 23 27 24 28 28 29 25 30 27 31 26 32
REMARK H PARENT 1 19
REMARK Flexibility Score: inf
ROOT
ATOM      1  O   UNL     1      -3.967  -0.484   5.820  1.00  0.00    -0.492 OA
ENDROOT
BRANCH   1   2
ATOM      2  C   UNL     1      -4.423  -0.153   4.531  1.00  0.00     0.119 A 
ATOM      3  C   UNL     1      -5.296   0.552   1.951  1.00  0.00    -0.006 A 
ATOM      4  C   UNL     1      -4.281   1.249   2.569  1.00  0.00     0.011 A 
ATOM      5  C   UNL     1      -5.869  -0.496   2.626  1.00  0.00     0.011 A 
ATOM      6  C   UNL     1      -3.858   0.900   3.833  1.00  0.00     0.047 A 
ATOM      7  C   UNL     1      -5.437  -0.849   3.910  1.00  0.00     0.047 A 
BRANCH   3   8
ATOM      8  C   UNL     1      -5.753   0.921   0.608  1.00  0.00     0.217 C 
ATOM      9  C   UNL     1      -2.059   3.344  -1.996  1.00  0.00     0.116 A 
ATOM     10  C   UNL     1      -2.050   2.029  -2.363  1.00  0.00     0.050 A 
ATOM     11  C   UNL     1      -3.008   3.791  -1.076  1.00  0.00     0.065 A 
ATOM     12  C   UNL     1      -2.969   1.169  -1.826  1.00  0.00     0.051 A 
ATOM     13  C   UNL     1      -3.917   2.958  -0.541  1.00  0.00     0.053 A 
ATOM     14  C   UNL     1      -3.913   1.630  -0.906  1.00  0.00     0.134 A 
ATOM     15  S   UNL     1      -5.119   3.520   0.624  1.00  0.00    -0.114 SA
ATOM     16  O   UNL     1      -4.809   0.735  -0.400  1.00  0.00    -0.483 OA
ATOM     17  C   UNL     1      -6.442   2.247   0.507  1.00  0.00     0.100 C 
BRANCH   9  18
ATOM     18  O   UNL     1      -1.137   4.212  -2.532  1.00  0.00    -0.508 OA
ATOM     19  H   UNL     1      -0.399   4.620  -1.989  1.00  0.00     0.293 HD
ENDBRANCH   9  18
BRANCH  17  20
ATOM     20  C   UNL     1      -7.509   2.473   1.510  1.00  0.00     0.006 C 
ATOM     21  C   UNL     1      -8.177   3.811   1.159  1.00  0.00     0.005 C 
ATOM     22  C   UNL     1      -8.674   1.537   1.173  1.00  0.00     0.005 C 
ATOM     23  C   UNL     1      -8.761   3.529  -0.200  1.00  0.00     0.000 C 
ATOM     24  C   UNL     1      -9.122   2.080  -0.177  1.00  0.00     0.000 C 
ENDBRANCH  17  20
ENDBRANCH   3   8
ENDBRANCH   1   2
BRANCH   1  25
ATOM     25  C   UNL     1      -2.588  -0.755   5.956  1.00  0.00     0.245 C 
BRANCH  25  26
ATOM     26  C   UNL     1      -2.038  -0.314   7.273  1.00  0.00     0.126 C 
BRANCH  26  27
ATOM     27  N   UNL     1      -1.138   0.787   7.230  1.00  0.00    -0.300 NA
ATOM     28  C   UNL     1      -1.008   1.357   5.901  1.00  0.00     0.084 C 
ATOM     29  C   UNL     1      -1.271   1.770   8.249  1.00  0.00     0.084 C 
ATOM     30  C   UNL     1      -1.377   2.815   5.848  1.00  0.00     0.016 C 
ATOM     31  C   UNL     1      -2.455   2.687   8.051  1.00  0.00     0.016 C 
ATOM     32  C   UNL     1      -2.688   2.989   6.586  1.00  0.00     0.003 C 
ENDBRANCH  26  27
ENDBRANCH  25  26
ENDBRANCH   1  25
TORSDOF 7
ENDMDL
MODEL 3
REMARK VINA RESULT:    -5.477      2.241      5.160
REMARK INTER + INTRA:          -9.385
REMARK INTER:                  -8.306
REMARK INTRA:                  -1.079
REMARK UNBOUND:                -1.827
REMARK SMILES Oc1ccc2c(c1)S[C@H](C1CCCC1)[C@H](c1ccc(OCCN3CCCCC3)cc1)O2
REMARK SMILES IDX 20 1 19 2 16 3 17 4 30 5 18 6 29 7 15 8 2 9 3 10 7 11 4 12
REMARK SMILES IDX 6 13 5 14 8 15 31 16 9 17 1 18 10 20 11 21 14 22 12 23 13 24
REMARK SMILES IDX 21 25 22 26 23 27 24 28 28 29 25 30 27 31 26 32
REMARK H PARENT 1 19
REMARK Flexibility Score: inf
ROOT
ATOM      1  O   UNL     1      -3.501  -0.942   5.494  1.00  0.00    -0.492 OA
ENDROOT
BRANCH   1   2
ATOM      2  C   UNL     1      -4.317  -0.528   4.427  1.00  0.00     0.119 A 
ATOM      3  C   UNL     1      -5.986   0.256   2.302  1.00  0.00    -0.006 A 
ATOM      4  C   UNL     1      -6.264  -0.873   3.039  1.00  0.00     0.011 A 
ATOM      5  C   UNL     1      -4.874   0.990   2.631  1.00  0.00     0.011 A 
ATOM      6  C   UNL     1      -5.444  -1.253   4.079  1.00  0.00     0.047 A 
ATOM      7  C   UNL     1      -4.042   0.603   3.688  1.00  0.00     0.047 A 
BRANCH   3   8
ATOM      8  C   UNL     1      -6.853   0.664   1.192  1.00  0.00     0.217 C 
ATOM      9  C   UNL     1      -5.358   5.167  -0.755  1.00  0.00     0.116 A 
ATOM     10  C   UNL     1      -4.839   4.171  -1.530  1.00  0.00     0.050 A 
ATOM     11  C   UNL     1      -6.170   4.836   0.332  1.00  0.00     0.065 A 
ATOM     12  C   UNL     1      -5.119   2.865  -1.235  1.00  0.00     0.051 A 
ATOM     13  C   UNL     1      -6.454   3.557   0.634  1.00  0.00     0.053 A 
ATOM     14  C   UNL     1      -5.933   2.547  -0.145  1.00  0.00     0.134 A 
ATOM     15  S   UNL     1      -7.480   3.134   2.007  1.00  0.00    -0.114 SA
ATOM     16  O   UNL     1      -6.184   1.231   0.109  1.00  0.00    -0.483 OA
ATOM     17  C   UNL     1      -8.070   1.444   1.583  1.00  0.00     0.100 C 
BRANCH   9  18
ATOM     18  O   UNL     1      -5.079   6.481  -1.047  1.00  0.00    -0.508 OA
ATOM     19  H   UNL     1      -5.794   7.151  -1.261  1.00  0.00     0.293 HD
ENDBRANCH   9  18
BRANCH  17  20
ATOM     20  C   UNL     1      -8.864   0.849   2.684  1.00  0.00     0.006 C 
ATOM     21  C   UNL     1      -9.968   1.859   3.035  1.00  0.00     0.005 C 
ATOM     22  C   UNL     1      -9.742  -0.254   2.086  1.00  0.00     0.005 C 
ATOM     23  C   UNL     1     -10.766   1.915   1.760  1.00  0.00     0.000 C 
ATOM     24  C   UNL     1     -10.659   0.547   1.172  1.00  0.00     0.000 C 
ENDBRANCH  17  20
ENDBRANCH   3   8
ENDBRANCH   1   2
BRANCH   1  25
ATOM     25  C   UNL     1      -2.267  -0.273   5.648  1.00  0.00     0.245 C 
BRANCH  25  26
ATOM     26  C   UNL     1      -2.019   0.172   7.053  1.00  0.00     0.126 C 
BRANCH  26  27
ATOM     27  N   UNL     1      -1.771   1.561   7.226  1.00  0.00    -0.300 NA
ATOM     28  C   UNL     1      -1.752   2.291   5.972  1.00  0.00     0.084 C 
ATOM     29  C   UNL     1      -2.505   2.225   8.247  1.00  0.00     0.084 C 
ATOM     30  C   UNL     1      -2.771   3.397   5.919  1.00  0.00     0.016 C 
ATOM     31  C   UNL     1      -3.944   2.495   7.878  1.00  0.00     0.016 C 
ATOM     32  C   UNL     1      -4.089   2.838   6.411  1.00  0.00     0.003 C 
ENDBRANCH  26  27
ENDBRANCH  25  26
ENDBRANCH   1  25
TORSDOF 7
ENDMDL
MODEL 4
REMARK VINA RESULT:    -5.429      2.408      3.307
REMARK INTER + INTRA:          -9.319
REMARK INTER:                  -7.556
REMARK INTRA:                  -1.763
REMARK UNBOUND:                -1.827
REMARK SMILES Oc1ccc2c(c1)S[C@H](C1CCCC1)[C@H](c1ccc(OCCN3CCCCC3)cc1)O2
REMARK SMILES IDX 20 1 19 2 16 3 17 4 30 5 18 6 29 7 15 8 2 9 3 10 7 11 4 12
REMARK SMILES IDX 6 13 5 14 8 15 31 16 9 17 1 18 10 20 11 21 14 22 12 23 13 24
REMARK SMILES IDX 21 25 22 26 23 27 24 28 28 29 25 30 27 31 26 32
REMARK H PARENT 1 19
REMARK Flexibility Score: inf
ROOT
ATOM      1  O   UNL     1      -1.588   3.306   6.991  1.00  0.00    -0.492 OA
ENDROOT
BRANCH   1   2
ATOM      2  C   UNL     1      -2.413   3.464   5.864  1.00  0.00     0.119 A 
ATOM      3  C   UNL     1      -4.109   3.793   3.644  1.00  0.00    -0.006 A 
ATOM      4  C   UNL     1      -4.579   3.978   4.925  1.00  0.00     0.011 A 
ATOM      5  C   UNL     1      -2.792   3.445   3.478  1.00  0.00     0.011 A 
ATOM      6  C   UNL     1      -3.744   3.816   6.009  1.00  0.00     0.047 A 
ATOM      7  C   UNL     1      -1.946   3.280   4.580  1.00  0.00     0.047 A 
BRANCH   3   8
ATOM      8  C   UNL     1      -4.993   3.961   2.486  1.00  0.00     0.217 C 
ATOM      9  C   UNL     1      -9.667   5.490   3.944  1.00  0.00     0.116 A 
ATOM     10  C   UNL     1      -8.956   6.590   3.557  1.00  0.00     0.050 A 
ATOM     11  C   UNL     1      -9.074   4.229   3.859  1.00  0.00     0.065 A 
ATOM     12  C   UNL     1      -7.678   6.444   3.094  1.00  0.00     0.051 A 
ATOM     13  C   UNL     1      -7.819   4.070   3.404  1.00  0.00     0.053 A 
ATOM     14  C   UNL     1      -7.097   5.176   3.013  1.00  0.00     0.134 A 
ATOM     15  S   UNL     1      -7.067   2.476   3.295  1.00  0.00    -0.114 SA
ATOM     16  O   UNL     1      -5.820   5.081   2.544  1.00  0.00    -0.483 OA
ATOM     17  C   UNL     1      -5.729   2.729   2.058  1.00  0.00     0.100 C 
BRANCH   9  18
ATOM     18  O   UNL     1     -10.952   5.632   4.411  1.00  0.00    -0.508 OA
ATOM     19  H   UNL     1     -11.708   5.052   4.098  1.00  0.00     0.293 HD
ENDBRANCH   9  18
BRANCH  17  20
ATOM     20  C   UNL     1      -4.886   1.520   1.908  1.00  0.00     0.006 C 
ATOM     21  C   UNL     1      -5.817   0.376   1.476  1.00  0.00     0.005 C 
ATOM     22  C   UNL     1      -4.082   1.666   0.613  1.00  0.00     0.005 C 
ATOM     23  C   UNL     1      -6.315   0.859   0.139  1.00  0.00     0.000 C 
ATOM     24  C   UNL     1      -5.186   1.649  -0.436  1.00  0.00     0.000 C 
ENDBRANCH  17  20
ENDBRANCH   3   8
ENDBRANCH   1   2
BRANCH   1  25
ATOM     25  C   UNL     1      -1.992   2.347   7.946  1.00  0.00     0.245 C 
BRANCH  25  26
ATOM     26  C   UNL     1      -1.581   0.958   7.582  1.00  0.00     0.126 C 
BRANCH  26  27
ATOM     27  N   UNL     1      -2.620  -0.014   7.585  1.00  0.00    -0.300 NA
ATOM     28  C   UNL     1      -3.925   0.555   7.304  1.00  0.00     0.084 C 
ATOM     29  C   UNL     1      -2.374  -1.224   6.879  1.00  0.00     0.084 C 
ATOM     30  C   UNL     1      -4.586  -0.055   6.098  1.00  0.00     0.016 C 
ATOM     31  C   UNL     1      -2.472  -1.077   5.379  1.00  0.00     0.016 C 
ATOM     32  C   UNL     1      -3.562  -0.104   4.983  1.00  0.00     0.003 C 
ENDBRANCH  26  27
ENDBRANCH  25  26
ENDBRANCH   1  25
TORSDOF 7
ENDMDL
MODEL 5
REMARK VINA RESULT:    -5.337      2.928      7.062
REMARK INTER + INTRA:          -9.192
REMARK INTER:                  -8.185
REMARK INTRA:                  -1.007
REMARK UNBOUND:                -1.827
REMARK SMILES Oc1ccc2c(c1)S[C@H](C1CCCC1)[C@H](c1ccc(OCCN3CCCCC3)cc1)O2
REMARK SMILES IDX 20 1 19 2 16 3 17 4 30 5 18 6 29 7 15 8 2 9 3 10 7 11 4 12
REMARK SMILES IDX 6 13 5 14 8 15 31 16 9 17 1 18 10 20 11 21 14 22 12 23 13 24
REMARK SMILES IDX 21 25 22 26 23 27 24 28 28 29 25 30 27 31 26 32
REMARK H PARENT 1 19
REMARK Flexibility Score: inf
ROOT
ATOM      1  O   UNL     1      -9.049   3.787   3.326  1.00  0.00    -0.492 OA
ENDROOT
BRANCH   1   2
ATOM      2  C   UNL     1      -7.813   3.140   3.152  1.00  0.00     0.119 A 
ATOM      3  C   UNL     1      -5.345   1.822   2.857  1.00  0.00    -0.006 A 
ATOM      4  C   UNL     1      -6.089   1.679   4.007  1.00  0.00     0.011 A 
ATOM      5  C   UNL     1      -5.839   2.623   1.858  1.00  0.00     0.011 A 
ATOM      6  C   UNL     1      -7.297   2.327   4.147  1.00  0.00     0.047 A 
ATOM      7  C   UNL     1      -7.066   3.280   2.002  1.00  0.00     0.047 A 
BRANCH   3   8
ATOM      8  C   UNL     1      -4.057   1.137   2.704  1.00  0.00     0.217 C 
ATOM      9  C   UNL     1      -1.418   1.171   7.101  1.00  0.00     0.116 A 
ATOM     10  C   UNL     1      -2.064  -0.028   6.997  1.00  0.00     0.050 A 
ATOM     11  C   UNL     1      -1.540   2.105   6.070  1.00  0.00     0.065 A 
ATOM     12  C   UNL     1      -2.819  -0.298   5.889  1.00  0.00     0.051 A 
ATOM     13  C   UNL     1      -2.278   1.853   4.975  1.00  0.00     0.053 A 
ATOM     14  C   UNL     1      -2.932   0.646   4.865  1.00  0.00     0.134 A 
ATOM     15  S   UNL     1      -2.434   3.032   3.670  1.00  0.00    -0.114 SA
ATOM     16  O   UNL     1      -3.695   0.330   3.780  1.00  0.00    -0.483 OA
ATOM     17  C   UNL     1      -2.927   1.999   2.230  1.00  0.00     0.100 C 
BRANCH   9  18
ATOM     18  O   UNL     1      -0.658   1.447   8.213  1.00  0.00    -0.508 OA
ATOM     19  H   UNL     1      -1.055   1.794   9.066  1.00  0.00     0.293 HD
ENDBRANCH   9  18
BRANCH  17  20
ATOM     20  C   UNL     1      -3.231   2.827   1.040  1.00  0.00     0.006 C 
ATOM     21  C   UNL     1      -1.954   3.615   0.706  1.00  0.00     0.005 C 
ATOM     22  C   UNL     1      -3.259   1.903  -0.180  1.00  0.00     0.005 C 
ATOM     23  C   UNL     1      -0.982   2.516   0.368  1.00  0.00     0.000 C 
ATOM     24  C   UNL     1      -1.811   1.435  -0.243  1.00  0.00     0.000 C 
ENDBRANCH  17  20
ENDBRANCH   3   8
ENDBRANCH   1   2
BRANCH   1  25
ATOM     25  C   UNL     1     -10.081   3.439   2.427  1.00  0.00     0.245 C 
BRANCH  25  26
ATOM     26  C   UNL     1     -10.720   2.129   2.756  1.00  0.00     0.126 C 
BRANCH  26  27
ATOM     27  N   UNL     1     -10.728   1.165   1.710  1.00  0.00    -0.300 NA
ATOM     28  C   UNL     1      -9.578   1.279   0.831  1.00  0.00     0.084 C 
ATOM     29  C   UNL     1     -11.023  -0.178   2.072  1.00  0.00     0.084 C 
ATOM     30  C   UNL     1      -8.759   0.018   0.767  1.00  0.00     0.016 C 
ATOM     31  C   UNL     1      -9.878  -0.883   2.759  1.00  0.00     0.016 C 
ATOM     32  C   UNL     1      -8.541  -0.465   2.186  1.00  0.00     0.003 C 
ENDBRANCH  26  27
ENDBRANCH  25  26
ENDBRANCH   1  25
TORSDOF 7
ENDMDL
MODEL 6
REMARK VINA RESULT:    -5.324      1.508      2.103
REMARK INTER + INTRA:          -9.174
REMARK INTER:                  -7.984
REMARK INTRA:                  -1.189
REMARK UNBOUND:                -1.827
REMARK SMILES Oc1ccc2c(c1)S[C@H](C1CCCC1)[C@H](c1ccc(OCCN3CCCCC3)cc1)O2
REMARK SMILES IDX 20 1 19 2 16 3 17 4 30 5 18 6 29 7 15 8 2 9 3 10 7 11 4 12
REMARK SMILES IDX 6 13 5 14 8 15 31 16 9 17 1 18 10 20 11 21 14 22 12 23 13 24
REMARK SMILES IDX 21 25 22 26 23 27 24 28 28 29 25 30 27 31 26 32
REMARK H PARENT 1 19
REMARK Flexibility Score: inf
ROOT
ATOM      1  O   UNL     1      -1.524   3.355   6.774  1.00  0.00    -0.492 OA
ENDROOT
BRANCH   1   2
ATOM      2  C   UNL     1      -2.285   3.361   5.593  1.00  0.00     0.119 A 
ATOM      3  C   UNL     1      -3.856   3.389   3.259  1.00  0.00    -0.006 A 
ATOM      4  C   UNL     1      -4.408   3.686   4.485  1.00  0.00     0.011 A 
ATOM      5  C   UNL     1      -2.520   3.080   3.204  1.00  0.00     0.011 A 
ATOM      6  C   UNL     1      -3.634   3.670   5.625  1.00  0.00     0.047 A 
ATOM      7  C   UNL     1      -1.736   3.066   4.363  1.00  0.00     0.047 A 
BRANCH   3   8
ATOM      8  C   UNL     1      -4.674   3.400   2.042  1.00  0.00     0.217 C 
ATOM      9  C   UNL     1      -8.639   0.174   2.460  1.00  0.00     0.116 A 
ATOM     10  C   UNL     1      -9.076   1.432   2.761  1.00  0.00     0.050 A 
ATOM     11  C   UNL     1      -7.308  -0.017   2.086  1.00  0.00     0.065 A 
ATOM     12  C   UNL     1      -8.207   2.486   2.694  1.00  0.00     0.051 A 
ATOM     13  C   UNL     1      -6.443   1.010   2.015  1.00  0.00     0.053 A 
ATOM     14  C   UNL     1      -6.877   2.281   2.319  1.00  0.00     0.134 A 
ATOM     15  S   UNL     1      -4.758   0.773   1.543  1.00  0.00    -0.114 SA
ATOM     16  O   UNL     1      -6.049   3.364   2.265  1.00  0.00    -0.483 OA
ATOM     17  C   UNL     1      -4.244   2.445   0.972  1.00  0.00     0.100 C 
BRANCH   9  18
ATOM     18  O   UNL     1      -9.508  -0.889   2.526  1.00  0.00    -0.508 OA
ATOM     19  H   UNL     1      -9.423  -1.696   1.936  1.00  0.00     0.293 HD
ENDBRANCH   9  18
BRANCH  17  20
ATOM     20  C   UNL     1      -2.801   2.490   0.639  1.00  0.00     0.006 C 
ATOM     21  C   UNL     1      -2.550   1.395  -0.409  1.00  0.00     0.005 C 
ATOM     22  C   UNL     1      -2.562   3.717  -0.246  1.00  0.00     0.005 C 
ATOM     23  C   UNL     1      -3.388   1.865  -1.568  1.00  0.00     0.000 C 
ATOM     24  C   UNL     1      -3.360   3.356  -1.491  1.00  0.00     0.000 C 
ENDBRANCH  17  20
ENDBRANCH   3   8
ENDBRANCH   1   2
BRANCH   1  25
ATOM     25  C   UNL     1      -1.912   2.438   7.776  1.00  0.00     0.245 C 
BRANCH  25  26
ATOM     26  C   UNL     1      -1.520   1.032   7.459  1.00  0.00     0.126 C 
BRANCH  26  27
ATOM     27  N   UNL     1      -2.553   0.061   7.575  1.00  0.00    -0.300 NA
ATOM     28  C   UNL     1      -3.870   0.604   7.298  1.00  0.00     0.084 C 
ATOM     29  C   UNL     1      -2.327  -1.199   6.957  1.00  0.00     0.084 C 
ATOM     30  C   UNL     1      -4.570  -0.100   6.167  1.00  0.00     0.016 C 
ATOM     31  C   UNL     1      -2.479  -1.170   5.454  1.00  0.00     0.016 C 
ATOM     32  C   UNL     1      -3.587  -0.234   5.024  1.00  0.00     0.003 C 
ENDBRANCH  26  27
ENDBRANCH  25  26
ENDBRANCH   1  25
TORSDOF 7
ENDMDL
MODEL 7
REMARK VINA RESULT:    -5.308      2.603      5.106
REMARK INTER + INTRA:          -9.152
REMARK INTER:                  -8.033
REMARK INTRA:                  -1.119
REMARK UNBOUND:                -1.827
REMARK SMILES Oc1ccc2c(c1)S[C@H](C1CCCC1)[C@H](c1ccc(OCCN3CCCCC3)cc1)O2
REMARK SMILES IDX 20 1 19 2 16 3 17 4 30 5 18 6 29 7 15 8 2 9 3 10 7 11 4 12
REMARK SMILES IDX 6 13 5 14 8 15 31 16 9 17 1 18 10 20 11 21 14 22 12 23 13 24
REMARK SMILES IDX 21 25 22 26 23 27 24 28 28 29 25 30 27 31 26 32
REMARK H PARENT 1 19
REMARK Flexibility Score: inf
ROOT
ATOM      1  O   UNL     1      -2.613   3.847   5.626  1.00  0.00    -0.492 OA
ENDROOT
BRANCH   1   2
ATOM      2  C   UNL     1      -3.215   3.225   4.518  1.00  0.00     0.119 A 
ATOM      3  C   UNL     1      -4.367   1.971   2.279  1.00  0.00    -0.006 A 
ATOM      4  C   UNL     1      -3.001   2.086   2.398  1.00  0.00     0.011 A 
ATOM      5  C   UNL     1      -5.153   2.483   3.281  1.00  0.00     0.011 A 
ATOM      6  C   UNL     1      -2.441   2.702   3.497  1.00  0.00     0.047 A 
ATOM      7  C   UNL     1      -4.583   3.107   4.396  1.00  0.00     0.047 A 
BRANCH   3   8
ATOM      8  C   UNL     1      -4.969   1.320   1.111  1.00  0.00     0.217 C 
ATOM      9  C   UNL     1      -2.930   3.103  -3.244  1.00  0.00     0.116 A 
ATOM     10  C   UNL     1      -2.300   1.935  -2.922  1.00  0.00     0.050 A 
ATOM     11  C   UNL     1      -3.962   3.572  -2.429  1.00  0.00     0.065 A 
ATOM     12  C   UNL     1      -2.686   1.242  -1.809  1.00  0.00     0.051 A 
ATOM     13  C   UNL     1      -4.352   2.900  -1.332  1.00  0.00     0.053 A 
ATOM     14  C   UNL     1      -3.720   1.722  -1.001  1.00  0.00     0.134 A 
ATOM     15  S   UNL     1      -5.656   3.490  -0.297  1.00  0.00    -0.114 SA
ATOM     16  O   UNL     1      -4.069   0.994   0.099  1.00  0.00    -0.483 OA
ATOM     17  C   UNL     1      -6.210   1.972   0.583  1.00  0.00     0.100 C 
BRANCH   9  18
ATOM     18  O   UNL     1      -2.546   3.805  -4.362  1.00  0.00    -0.508 OA
ATOM     19  H   UNL     1      -2.620   3.428  -5.289  1.00  0.00     0.293 HD
ENDBRANCH   9  18
BRANCH  17  20
ATOM     20  C   UNL     1      -7.237   2.277   1.606  1.00  0.00     0.006 C 
ATOM     21  C   UNL     1      -8.416   2.938   0.874  1.00  0.00     0.005 C 
ATOM     22  C   UNL     1      -7.916   0.961   1.996  1.00  0.00     0.005 C 
ATOM     23  C   UNL     1      -8.876   1.838  -0.046  1.00  0.00     0.000 C 
ATOM     24  C   UNL     1      -8.598   0.570   0.692  1.00  0.00     0.000 C 
ENDBRANCH  17  20
ENDBRANCH   3   8
ENDBRANCH   1   2
BRANCH   1  25
ATOM     25  C   UNL     1      -2.758   3.201   6.874  1.00  0.00     0.245 C 
BRANCH  25  26
ATOM     26  C   UNL     1      -1.987   1.925   6.960  1.00  0.00     0.126 C 
BRANCH  26  27
ATOM     27  N   UNL     1      -2.708   0.799   7.446  1.00  0.00    -0.300 NA
ATOM     28  C   UNL     1      -4.139   0.910   7.229  1.00  0.00     0.084 C 
ATOM     29  C   UNL     1      -2.192  -0.487   7.123  1.00  0.00     0.084 C 
ATOM     30  C   UNL     1      -4.698  -0.220   6.407  1.00  0.00     0.016 C 
ATOM     31  C   UNL     1      -2.449  -0.898   5.693  1.00  0.00     0.016 C 
ATOM     32  C   UNL     1      -3.796  -0.411   5.206  1.00  0.00     0.003 C 
ENDBRANCH  26  27
ENDBRANCH  25  26
ENDBRANCH   1  25
TORSDOF 7
ENDMDL
MODEL 8
REMARK VINA RESULT:    -5.247      1.950      4.648
REMARK INTER + INTRA:          -9.068
REMARK INTER:                  -7.935
REMARK INTRA:                  -1.133
REMARK UNBOUND:                -1.827
REMARK SMILES Oc1ccc2c(c1)S[C@H](C1CCCC1)[C@H](c1ccc(OCCN3CCCCC3)cc1)O2
REMARK SMILES IDX 20 1 19 2 16 3 17 4 30 5 18 6 29 7 15 8 2 9 3 10 7 11 4 12
REMARK SMILES IDX 6 13 5 14 8 15 31 16 9 17 1 18 10 20 11 21 14 22 12 23 13 24
REMARK SMILES IDX 21 25 22 26 23 27 24 28 28 29 25 30 27 31 26 32
REMARK H PARENT 1 19
REMARK Flexibility Score: inf
ROOT
ATOM      1  O   UNL     1      -3.605   0.864   7.437  1.00  0.00    -0.492 OA
ENDROOT
BRANCH   1   2
ATOM      2  C   UNL     1      -4.136   0.737   6.142  1.00  0.00     0.119 A 
ATOM      3  C   UNL     1      -5.215   0.539   3.551  1.00  0.00    -0.006 A 
ATOM      4  C   UNL     1      -5.256   1.728   4.244  1.00  0.00     0.011 A 
ATOM      5  C   UNL     1      -4.633  -0.547   4.156  1.00  0.00     0.011 A 
ATOM      6  C   UNL     1      -4.727   1.820   5.513  1.00  0.00     0.047 A 
ATOM      7  C   UNL     1      -4.096  -0.451   5.445  1.00  0.00     0.047 A 
BRANCH   3   8
ATOM      8  C   UNL     1      -5.779   0.434   2.202  1.00  0.00     0.217 C 
ATOM      9  C   UNL     1      -3.960   4.134  -0.849  1.00  0.00     0.116 A 
ATOM     10  C   UNL     1      -3.232   2.999  -1.069  1.00  0.00     0.050 A 
ATOM     11  C   UNL     1      -5.013   4.103   0.066  1.00  0.00     0.065 A 
ATOM     12  C   UNL     1      -3.543   1.852  -0.392  1.00  0.00     0.051 A 
ATOM     13  C   UNL     1      -5.330   2.983   0.738  1.00  0.00     0.053 A 
ATOM     14  C   UNL     1      -4.599   1.836   0.521  1.00  0.00     0.134 A 
ATOM     15  S   UNL     1      -6.662   2.942   1.897  1.00  0.00    -0.114 SA
ATOM     16  O   UNL     1      -4.872   0.668   1.171  1.00  0.00    -0.483 OA
ATOM     17  C   UNL     1      -7.077   1.152   1.993  1.00  0.00     0.100 C 
BRANCH   9  18
ATOM     18  O   UNL     1      -3.651   5.289  -1.527  1.00  0.00    -0.508 OA
ATOM     19  H   UNL     1      -3.395   5.296  -2.496  1.00  0.00     0.293 HD
ENDBRANCH   9  18
BRANCH  17  20
ATOM     20  C   UNL     1      -8.110   0.884   3.021  1.00  0.00     0.006 C 
ATOM     21  C   UNL     1      -9.391   1.601   2.565  1.00  0.00     0.005 C 
ATOM     22  C   UNL     1      -8.580  -0.563   2.847  1.00  0.00     0.005 C 
ATOM     23  C   UNL     1      -9.712   0.891   1.276  1.00  0.00     0.000 C 
ATOM     24  C   UNL     1      -9.233  -0.510   1.472  1.00  0.00     0.000 C 
ENDBRANCH  17  20
ENDBRANCH   3   8
ENDBRANCH   1   2
BRANCH   1  25
ATOM     25  C   UNL     1      -2.695   1.923   7.650  1.00  0.00     0.245 C 
BRANCH  25  26
ATOM     26  C   UNL     1      -1.291   1.563   7.289  1.00  0.00     0.126 C 
BRANCH  26  27
ATOM     27  N   UNL     1      -0.602   2.504   6.474  1.00  0.00    -0.300 NA
ATOM     28  C   UNL     1       0.799   2.170   6.290  1.00  0.00     0.084 C 
ATOM     29  C   UNL     1      -1.243   2.908   5.271  1.00  0.00     0.084 C 
ATOM     30  C   UNL     1       1.177   1.998   4.844  1.00  0.00     0.016 C 
ATOM     31  C   UNL     1      -1.183   1.869   4.177  1.00  0.00     0.016 C 
ATOM     32  C   UNL     1       0.131   1.118   4.193  1.00  0.00     0.003 C 
ENDBRANCH  26  27
ENDBRANCH  25  26
ENDBRANCH   1  25
TORSDOF 7
ENDMDL
MODEL 9
REMARK VINA RESULT:    -5.076      2.233      4.707
REMARK INTER + INTRA:          -8.832
REMARK INTER:                  -7.595
REMARK INTRA:                  -1.238
REMARK UNBOUND:                -1.827
REMARK SMILES Oc1ccc2c(c1)S[C@H](C1CCCC1)[C@H](c1ccc(OCCN3CCCCC3)cc1)O2
REMARK SMILES IDX 20 1 19 2 16 3 17 4 30 5 18 6 29 7 15 8 2 9 3 10 7 11 4 12
REMARK SMILES IDX 6 13 5 14 8 15 31 16 9 17 1 18 10 20 11 21 14 22 12 23 13 24
REMARK SMILES IDX 21 25 22 26 23 27 24 28 28 29 25 30 27 31 26 32
REMARK H PARENT 1 19
REMARK Flexibility Score: inf
ROOT
ATOM      1  O   UNL     1      -1.891   3.380   5.535  1.00  0.00    -0.492 OA
ENDROOT
BRANCH   1   2
ATOM      2  C   UNL     1      -2.725   2.917   4.501  1.00  0.00     0.119 A 
ATOM      3  C   UNL     1      -4.439   2.014   2.461  1.00  0.00    -0.006 A 
ATOM      4  C   UNL     1      -4.932   2.716   3.538  1.00  0.00     0.011 A 
ATOM      5  C   UNL     1      -3.090   1.766   2.408  1.00  0.00     0.011 A 
ATOM      6  C   UNL     1      -4.088   3.156   4.535  1.00  0.00     0.047 A 
ATOM      7  C   UNL     1      -2.235   2.214   3.421  1.00  0.00     0.047 A 
BRANCH   3   8
ATOM      8  C   UNL     1      -5.332   1.540   1.399  1.00  0.00     0.217 C 
ATOM      9  C   UNL     1      -6.087   5.181  -2.133  1.00  0.00     0.116 A 
ATOM     10  C   UNL     1      -5.109   4.341  -2.584  1.00  0.00     0.050 A 
ATOM     11  C   UNL     1      -6.697   4.922  -0.904  1.00  0.00     0.065 A 
ATOM     12  C   UNL     1      -4.742   3.261  -1.830  1.00  0.00     0.051 A 
ATOM     13  C   UNL     1      -6.347   3.864  -0.153  1.00  0.00     0.053 A 
ATOM     14  C   UNL     1      -5.361   3.014  -0.602  1.00  0.00     0.134 A 
ATOM     15  S   UNL     1      -7.116   3.534   1.402  1.00  0.00    -0.114 SA
ATOM     16  O   UNL     1      -4.960   1.924   0.113  1.00  0.00    -0.483 OA
ATOM     17  C   UNL     1      -6.794   1.740   1.655  1.00  0.00     0.100 C 
BRANCH   9  18
ATOM     18  O   UNL     1      -6.460   6.268  -2.886  1.00  0.00    -0.508 OA
ATOM     19  H   UNL     1      -6.614   6.213  -3.876  1.00  0.00     0.293 HD
ENDBRANCH   9  18
BRANCH  17  20
ATOM     20  C   UNL     1      -7.263   1.283   2.984  1.00  0.00     0.006 C 
ATOM     21  C   UNL     1      -8.773   1.562   3.045  1.00  0.00     0.005 C 
ATOM     22  C   UNL     1      -7.312  -0.248   2.962  1.00  0.00     0.005 C 
ATOM     23  C   UNL     1      -9.306   0.678   1.948  1.00  0.00     0.000 C 
ATOM     24  C   UNL     1      -8.395  -0.505   1.924  1.00  0.00     0.000 C 
ENDBRANCH  17  20
ENDBRANCH   3   8
ENDBRANCH   1   2
BRANCH   1  25
ATOM     25  C   UNL     1      -2.115   2.842   6.821  1.00  0.00     0.245 C 
BRANCH  25  26
ATOM     26  C   UNL     1      -1.564   1.463   6.977  1.00  0.00     0.126 C 
BRANCH  26  27
ATOM     27  N   UNL     1      -2.467   0.491   7.489  1.00  0.00    -0.300 NA
ATOM     28  C   UNL     1      -3.858   0.864   7.310  1.00  0.00     0.084 C 
ATOM     29  C   UNL     1      -2.207  -0.869   7.162  1.00  0.00     0.084 C 
ATOM     30  C   UNL     1      -4.639  -0.144   6.511  1.00  0.00     0.016 C 
ATOM     31  C   UNL     1      -2.575  -1.228   5.742  1.00  0.00     0.016 C 
ATOM     32  C   UNL     1      -3.821  -0.500   5.287  1.00  0.00     0.003 C 
ENDBRANCH  26  27
ENDBRANCH  25  26
ENDBRANCH   1  25
TORSDOF 7
ENDMDL
MODEL 10
REMARK VINA RESULT:    -3.476      3.301      7.839
REMARK INTER + INTRA:          -6.624
REMARK INTER:                  -5.652
REMARK INTRA:                  -0.971
REMARK UNBOUND:                -1.827
REMARK SMILES Oc1ccc2c(c1)S[C@H](C1CCCC1)[C@H](c1ccc(OCCN3CCCCC3)cc1)O2
REMARK SMILES IDX 20 1 19 2 16 3 17 4 30 5 18 6 29 7 15 8 2 9 3 10 7 11 4 12
REMARK SMILES IDX 6 13 5 14 8 15 31 16 9 17 1 18 10 20 11 21 14 22 12 23 13 24
REMARK SMILES IDX 21 25 22 26 23 27 24 28 28 29 25 30 27 31 26 32
REMARK H PARENT 1 19
REMARK Flexibility Score: inf
ROOT
ATOM      1  O   UNL     1      -6.939  -1.231   2.682  1.00  0.00    -0.492 OA
ENDROOT
BRANCH   1   2
ATOM      2  C   UNL     1      -5.989  -0.302   3.140  1.00  0.00     0.119 A 
ATOM      3  C   UNL     1      -4.103   1.546   4.111  1.00  0.00    -0.006 A 
ATOM      4  C   UNL     1      -4.918   0.850   4.974  1.00  0.00     0.011 A 
ATOM      5  C   UNL     1      -4.233   1.315   2.764  1.00  0.00     0.011 A 
ATOM      6  C   UNL     1      -5.841  -0.054   4.494  1.00  0.00     0.047 A 
ATOM      7  C   UNL     1      -5.170   0.397   2.278  1.00  0.00     0.047 A 
BRANCH   3   8
ATOM      8  C   UNL     1      -3.122   2.512   4.616  1.00  0.00     0.217 C 
ATOM      9  C   UNL     1       1.112   2.522   1.721  1.00  0.00     0.116 A 
ATOM     10  C   UNL     1       0.312   3.551   1.315  1.00  0.00     0.050 A 
ATOM     11  C   UNL     1       0.704   1.718   2.787  1.00  0.00     0.065 A 
ATOM     12  C   UNL     1      -0.874   3.782   1.956  1.00  0.00     0.051 A 
ATOM     13  C   UNL     1      -0.459   1.934   3.427  1.00  0.00     0.053 A 
ATOM     14  C   UNL     1      -1.270   2.970   3.022  1.00  0.00     0.134 A 
ATOM     15  S   UNL     1      -0.978   0.919   4.776  1.00  0.00    -0.114 SA
ATOM     16  O   UNL     1      -2.461   3.240   3.629  1.00  0.00    -0.483 OA
ATOM     17  C   UNL     1      -2.186   1.987   5.661  1.00  0.00     0.100 C 
BRANCH   9  18
ATOM     18  O   UNL     1       2.305   2.285   1.080  1.00  0.00    -0.508 OA
ATOM     19  H   UNL     1       3.094   2.898   1.162  1.00  0.00     0.293 HD
ENDBRANCH   9  18
BRANCH  17  20
ATOM     20  C   UNL     1      -2.840   1.265   6.777  1.00  0.00     0.006 C 
ATOM     21  C   UNL     1      -1.727   0.549   7.559  1.00  0.00     0.005 C 
ATOM     22  C   UNL     1      -3.238   2.298   7.835  1.00  0.00     0.005 C 
ATOM     23  C   UNL     1      -0.903   1.701   8.068  1.00  0.00     0.000 C 
ATOM     24  C   UNL     1      -1.878   2.811   8.289  1.00  0.00     0.000 C 
ENDBRANCH  17  20
ENDBRANCH   3   8
ENDBRANCH   1   2
BRANCH   1  25
ATOM     25  C   UNL     1      -8.282  -0.797   2.637  1.00  0.00     0.245 C 
BRANCH  25  26
ATOM     26  C   UNL     1      -8.630  -0.116   1.353  1.00  0.00     0.126 C 
BRANCH  26  27
ATOM     27  N   UNL     1      -9.425   1.057   1.472  1.00  0.00    -0.300 NA
ATOM     28  C   UNL     1      -9.940   1.256   2.814  1.00  0.00     0.084 C 
ATOM     29  C   UNL     1      -8.909   2.248   0.889  1.00  0.00     0.084 C 
ATOM     30  C   UNL     1      -9.518   2.568   3.418  1.00  0.00     0.016 C 
ATOM     31  C   UNL     1      -7.798   2.881   1.693  1.00  0.00     0.016 C 
ATOM     32  C   UNL     1      -8.031   2.731   3.181  1.00  0.00     0.003 C 
ENDBRANCH  26  27
ENDBRANCH  25  26
ENDBRANCH   1  25
TORSDOF 7
ENDMDL
