REMARK SMILES Oc1ccc2c(c1)S[C@H](C1CCCC1)[C@H](c1ccc(OCCN3CCCCC3)cc1)O2
REMARK SMILES IDX 20 1 19 2 16 3 17 4 30 5 18 6 29 7 15 8 2 9 3 10 7 11 4 12
REMARK SMILES IDX 6 13 5 14 8 15 31 16 9 17 1 18 10 20 11 21 14 22 12 23 13 24
REMARK SMILES IDX 21 25 22 26 23 27 24 28 28 29 25 30 27 31 26 32
REMARK H PARENT 1 19
REMARK Flexibility Score: inf
ROOT
ATOM      1  O   UNL     1       2.658  -1.070  -1.092  1.00  0.00    -0.492 OA
ENDROOT
BRANCH   1   2
ATOM      2  C   UNL     1       1.262  -0.905  -1.069  1.00  0.00     0.119 A 
ATOM      3  C   UNL     1      -1.538  -0.633  -1.025  1.00  0.00    -0.006 A 
ATOM      4  C   UNL     1      -0.950  -1.877  -1.075  1.00  0.00     0.011 A 
ATOM      5  C   UNL     1      -0.723   0.471  -0.996  1.00  0.00     0.011 A 
ATOM      6  C   UNL     1       0.422  -2.005  -1.097  1.00  0.00     0.047 A 
ATOM      7  C   UNL     1       0.670   0.339  -1.018  1.00  0.00     0.047 A 
BRANCH   3   8
ATOM      8  C   UNL     1      -2.997  -0.490  -1.005  1.00  0.00     0.217 C 
ATOM      9  C   UNL     1      -4.364   4.453  -1.044  1.00  0.00     0.116 A 
ATOM     10  C   UNL     1      -4.431   3.979  -2.323  1.00  0.00     0.050 A 
ATOM     11  C   UNL     1      -3.998   3.587  -0.012  1.00  0.00     0.065 A 
ATOM     12  C   UNL     1      -4.140   2.667  -2.576  1.00  0.00     0.051 A 
ATOM     13  C   UNL     1      -3.710   2.295  -0.246  1.00  0.00     0.053 A 
ATOM     14  C   UNL     1      -3.775   1.811  -1.534  1.00  0.00     0.134 A 
ATOM     15  S   UNL     1      -3.246   1.197   1.057  1.00  0.00    -0.114 SA
ATOM     16  O   UNL     1      -3.495   0.511  -1.836  1.00  0.00    -0.483 OA
ATOM     17  C   UNL     1      -3.619  -0.463   0.357  1.00  0.00     0.100 C 
BRANCH   9  18
ATOM     18  O   UNL     1      -4.655   5.771  -0.784  1.00  0.00    -0.508 OA
ATOM     19  H   UNL     1      -3.958   6.492  -0.799  1.00  0.00     0.293 HD
ENDBRANCH   9  18
BRANCH  17  20
ATOM     20  C   UNL     1      -3.182  -1.550   1.264  1.00  0.00     0.006 C 
ATOM     21  C   UNL     1      -3.925  -1.349   2.594  1.00  0.00     0.005 C 
ATOM     22  C   UNL     1      -3.866  -2.843   0.810  1.00  0.00     0.005 C 
ATOM     23  C   UNL     1      -5.363  -1.529   2.186  1.00  0.00     0.000 C 
ATOM     24  C   UNL     1      -5.331  -2.522   1.071  1.00  0.00     0.000 C 
ENDBRANCH  17  20
ENDBRANCH   3   8
ENDBRANCH   1   2
BRANCH   1  25
ATOM     25  C   UNL     1       3.438   0.107  -1.060  1.00  0.00     0.245 C 
BRANCH  25  26
ATOM     26  C   UNL     1       4.906  -0.169  -1.088  1.00  0.00     0.126 C 
BRANCH  26  27
ATOM     27  N   UNL     1       5.407  -0.958  -0.016  1.00  0.00    -0.300 NA
ATOM     28  C   UNL     1       6.838  -1.186  -0.105  1.00  0.00     0.084 C 
ATOM     29  C   UNL     1       4.977  -0.614   1.295  1.00  0.00     0.084 C 
ATOM     30  C   UNL     1       7.589  -0.688   1.100  1.00  0.00     0.016 C 
ATOM     31  C   UNL     1       5.650   0.621   1.846  1.00  0.00     0.016 C 
ATOM     32  C   UNL     1       7.096   0.710   1.409  1.00  0.00     0.003 C 
ENDBRANCH  26  27
ENDBRANCH  25  26
ENDBRANCH   1  25
TORSDOF 7
